Circuit: * C:\Users\Sachin Konan\Documents\ScienceFair2017\SpiceCircuits\2ndOrderLowPass.asc

Direct Newton iteration for .op point succeeded.

Date: Mon Mar 13 13:52:48 2017
Total elapsed time: 0.076 seconds.

tnom = 27
temp = 27
method = trap
totiter = 38
traniter = 0
tranpoints = 0
accept = 0
rejected = 0
matrix size = 13
fillins = 9
solver = Normal
Matrix Compiler1:      60 opcodes
Matrix Compiler2:     104 opcodes

