Circuit: * C:\Users\Sachin Konan\Documents\ScienceFair2017\SpiceCircuits\40dB Amplifier.asc

Direct Newton iteration for .op point succeeded.

Date: Thu Feb 16 17:58:54 2017
Total elapsed time: 0.057 seconds.

tnom = 27
temp = 27
method = trap
totiter = 22
traniter = 0
tranpoints = 0
accept = 0
rejected = 0
matrix size = 14
fillins = 6
solver = Normal
Matrix Compiler1:      43 opcodes
Matrix Compiler2: 1.33 KB object code size

