Circuit: * C:\Users\Sachin Konan\Documents\ScienceFair2017\SpiceCircuits\DACLowPass.asc


Date: Thu Mar 09 17:46:20 2017
Total elapsed time: 0.065 seconds.

tnom = 27
temp = 27
method = trap
totiter = 0
traniter = 0
tranpoints = 0
accept = 0
rejected = 0
matrix size = 3
fillins = 0
solver = Normal

