Circuit: * C:\Users\Sachin Konan\Documents\ScienceFair2017\SpiceCircuits\DACLowPass.asc


Date: Mon Feb 20 12:53:35 2017
Total elapsed time: 0.012 seconds.

tnom = 27
temp = 27
method = trap
totiter = 0
traniter = 0
tranpoints = 0
accept = 0
rejected = 0
matrix size = 3
fillins = 0
solver = Normal

