Circuit: * C:\Users\Sachin Konan\Documents\ScienceFair2017\SpiceCircuits\Draft1.asc

Direct Newton iteration for .op point succeeded.

Date: Mon Mar 13 14:14:00 2017
Total elapsed time: 0.086 seconds.

tnom = 27
temp = 27
method = trap
totiter = 46
traniter = 0
tranpoints = 0
accept = 0
rejected = 0
matrix size = 14
fillins = 6
solver = Normal
Matrix Compiler1:      44 opcodes
Matrix Compiler2:     101 opcodes

