Circuit: * C:\Users\Sachin Konan\Documents\ScienceFair2017\SpiceCircuits\Non-invertAmp.asc

Direct Newton iteration for .op point succeeded.

Date: Wed Jan 04 16:56:17 2017
Total elapsed time: 0.125 seconds.

tnom = 27
temp = 27
method = trap
totiter = 21
traniter = 0
tranpoints = 0
accept = 0
rejected = 0
matrix size = 11
fillins = 6
solver = Normal
Matrix Compiler1:      30 opcodes
Matrix Compiler2: 977 bytes object code size

